# generated using pymatgen
data_CaTiO3
_symmetry_space_group_name_H-M   'P 1'
_cell_length_a   8.85169892
_cell_length_b   8.85170055
_cell_length_c   8.85169975
_cell_angle_alpha   109.56166418
_cell_angle_beta   109.56165211
_cell_angle_gamma   109.56164943
_symmetry_Int_Tables_number   1
_chemical_formula_structural   CaTiO3
_chemical_formula_sum   'Ca6 Ti6 O18'
_cell_volume   532.10266753
_cell_formula_units_Z   6
loop_
 _symmetry_equiv_pos_site_id
 _symmetry_equiv_pos_as_xyz
  1  'x, y, z'
loop_
 _atom_site_type_symbol
 _atom_site_label
 _atom_site_symmetry_multiplicity
 _atom_site_fract_x
 _atom_site_fract_y
 _atom_site_fract_z
 _atom_site_occupancy
  Ca  Ca0  1  0.81420434  0.62458053  0.31225566  1
  Ca  Ca1  1  0.62458053  0.31225566  0.81420434  1
  Ca  Ca2  1  0.31225566  0.81420434  0.62458053  1
  Ca  Ca3  1  0.18579565  0.37541947  0.68774434  1
  Ca  Ca4  1  0.37541947  0.68774434  0.18579566  1
  Ca  Ca5  1  0.68774433  0.18579566  0.37541947  1
  O  O6  1  0.66038868  0.76164256  0.42625597  1
  O  O7  1  0.76164255  0.42625597  0.66038867  1
  O  O8  1  0.42625596  0.66038866  0.76164255  1
  O  O9  1  0.33961133  0.23835745  0.57374404  1
  O  O10  1  0.23835745  0.57374404  0.33961134  1
  O  O11  1  0.57374404  0.33961133  0.23835744  1
  O  O12  1  0.69579394  0.62251115  0.01621646  1
  O  O13  1  0.62251114  0.01621645  0.69579395  1
  O  O14  1  0.01621646  0.69579394  0.62251115  1
  O  O15  1  0.30420606  0.37748886  0.98378355  1
  O  O16  1  0.37748885  0.98378354  0.30420605  1
  O  O17  1  0.98378355  0.30420606  0.37748886  1
  O  O18  1  0.10886624  0.85224675  0.40547874  1
  O  O19  1  0.85224675  0.40547873  0.10886623  1
  O  O20  1  0.40547872  0.10886623  0.85224675  1
  O  O21  1  0.89113377  0.14775325  0.59452127  1
  O  O22  1  0.14775326  0.59452127  0.89113376  1
  O  O23  1  0.59452128  0.89113377  0.14775324  1
  Ti  Ti24  1  0.78270655  0.97345653  0.63676349  1
  Ti  Ti25  1  0.97345652  0.63676349  0.78270652  1
  Ti  Ti26  1  0.63676350  0.78270653  0.97345654  1
  Ti  Ti27  1  0.21729346  0.02654346  0.36323650  1
  Ti  Ti28  1  0.02654347  0.36323651  0.21729347  1
  Ti  Ti29  1  0.36323651  0.21729348  0.02654347  1
