# generated using pymatgen
data_CaTiO3
_symmetry_space_group_name_H-M   'P 1'
_cell_length_a   3.54439741
_cell_length_b   7.89585105
_cell_length_c   3.54439767
_cell_angle_alpha   90.00000084
_cell_angle_beta   90.03717876
_cell_angle_gamma   90.00001706
_symmetry_Int_Tables_number   1
_chemical_formula_structural   CaTiO3
_chemical_formula_sum   'Ca1 Ti1 O3'
_cell_volume   99.19361288
_cell_formula_units_Z   1
loop_
 _symmetry_equiv_pos_site_id
 _symmetry_equiv_pos_as_xyz
  1  'x, y, z'
loop_
 _atom_site_type_symbol
 _atom_site_label
 _atom_site_symmetry_multiplicity
 _atom_site_fract_x
 _atom_site_fract_y
 _atom_site_fract_z
 _atom_site_occupancy
  Ca  Ca0  1  0.00030086  -0.00000000  -0.00030087  1
  O  O1  1  0.48817615  0.00000000  0.51182386  1
  O  O2  1  0.99643943  0.50000001  0.50307754  1
  O  O3  1  0.49692244  0.49999999  0.00356057  1
  Ti  Ti4  1  -0.00263889  0.50000000  1.00263890  1
