# generated using pymatgen
data_CaTiO3
_symmetry_space_group_name_H-M   'P 1'
_cell_length_a   6.19130793
_cell_length_b   5.50876038
_cell_length_c   5.79368504
_cell_angle_alpha   61.61391512
_cell_angle_beta   90.00000635
_cell_angle_gamma   90.00000004
_symmetry_Int_Tables_number   1
_chemical_formula_structural   CaTiO3
_chemical_formula_sum   'Ca2 Ti2 O6'
_cell_volume   173.84307059
_cell_formula_units_Z   2
loop_
 _symmetry_equiv_pos_site_id
 _symmetry_equiv_pos_as_xyz
  1  'x, y, z'
loop_
 _atom_site_type_symbol
 _atom_site_label
 _atom_site_symmetry_multiplicity
 _atom_site_fract_x
 _atom_site_fract_y
 _atom_site_fract_z
 _atom_site_occupancy
  Ca  Ca0  1  0.49999999  0.19160865  0.61678271  1
  Ca  Ca1  1  0.49999999  0.80839135  0.38321730  1
  O  O2  1  0.19595503  0.50000001  0.50000000  1
  O  O3  1  0.80404496  -0.00000003  0.50000000  1
  O  O4  1  0.80404496  0.50000003  0.50000001  1
  O  O5  1  0.19595503  -0.00000001  0.50000001  1
  O  O6  1  -0.00000000  0.50000000  -0.00000000  1
  O  O7  1  0.50000001  0.00000001  -0.00000000  1
  Ti  Ti8  1  0.00000002  0.31779781  0.36440439  1
  Ti  Ti9  1  0.00000002  0.68220218  0.63559559  1
